examples/test_perturbation_outputs/pert_min_cost/pglib_opf_case588_sdet.m
%% MATPOWER Case Format : Version 2
function mpc = pglib_opf_case588_sdet
mpc.version = '2';

%%-----  Power Flow Data  -----%%
%% system MVA base
mpc.baseMVA = 100.0;
%% bus data
%    bus_i    type    Pd    Qd    Gs    Bs    area    Vm    Va    baseKV    zone    Vmax    Vmin
mpc.bus = [
	1	1	89.79	28.550000000000004	0.0	0.0	1	1.0	0.0	345.0	1	1.1	0.9				
	2	1	0.0	0.0	0.0	-20.0	1	1.0	0.0	345.0	1	1.1	0.9				
	3	1	0.0	0.0	0.0	62.35000000000001	1	1.0	0.0	500.0	1	1.1	0.9				
	4	2	0.0	0.0	0.0	0.0	1	1.0	0.0	500.0	1	1.1	0.9				
	5	1	32.47	85.89	0.0	0.0	1	1.0	0.0	500.0	1	1.1	0.9				
	6	1	0.0	0.0	0.0	0.0	1	1.0	0.0	500.0	1	1.1	0.9				
	7	1	0.0	0.0	0.0	0.0	1	1.0	0.0	345.0	1	1.1	0.9				
	8	1	0.0	0.0	0.0	0.0	1	1.0	0.0	345.0	1	1.1	0.9				
	9	1	0.0	0.0	0.0	8.24	1	1.0	0.0	345.0	1	1.1	0.9				
	10	2	0.0	0.0	0.0	0.0	1	1.0	0.0	345.0	1	1.1	0.9				
	11	1	0.0	0.0	0.0	31.41	1	1.0	0.0	345.0	1	1.1	0.9				
	12	1	0.0	0.0	0.0	83.61	1	1.0	0.0	500.0	1	1.1	0.9				
	13	1	0.0	0.0	0.0	70.0	1	1.0	0.0	500.0	1	1.1	0.9				
	14	1	0.0	0.0	0.0	0.0	1	1.0	0.0	500.0	1	1.1	0.9				
	15	2	11.0	40.0	0.0	0.0	1	1.0	0.0	500.0	1	1.1	0.9				
	16	2	5.0	10.0	0.0	0.0	1	1.0	0.0	500.0	1	1.1	0.9				
	17	1	52.71	60.23	0.0	0.0	1	1.0	0.0	345.0	1	1.1	0.9				
	18	1	6.93	3.11	0.0	0.0	1	1.0	0.0	138.0	1	1.1	0.9				
	19	2	14.649999999999999	1.0	0.0	0.0	1	1.0	0.0	138.0	1	1.1	0.9				
	20	1	8.14	1.32	0.0	0.0	1	1.0	0.0	138.0	1	1.1	0.9				
	21	1	14.17	4.22	0.0	0.0	1	1.0	0.0	138.0	1	1.1	0.9				
	22	2	4.22	1.0	0.0	0.0	1	1.0	0.0	138.0	1	1.1	0.9				
	23	1	0.0	0.0	0.0	26.669999999999998	1	1.0	0.0	138.0	1	1.1	0.9				
	24	1	0.0	0.0	0.0	48.6	1	1.0	0.0	32.0	1	1.1	0.9				
	25	1	0.0	0.0	0.0	0.0	1	1.0	0.0	138.0	1	1.1	0.9				
	26	1	31.97	20.83	0.0	0.0	1	1.0	0.0	138.0	1	1.1	0.9				
	27	1	5.22	2.11	0.0	0.0	1	1.0	0.0	138.0	1	1.1	0.9				
	28	1	2.61	1.0	0.0	0.0	1	1.0	0.0	138.0	1	1.1	0.9				
	29	2	0.01	0.01	0.0	0.0	1	1.0	0.0	138.0	1	1.1	0.9				
	30	2	0.01	0.01	0.0	0.0	1	1.0	0.0	138.0	1	1.1	0.9				
	31	1	15.67	5.22	0.0	0.0	1	1.0	0.0	138.0	1	1.1	0.9				
	32	1	16.78	4.72	0.0	0.0	1	1.0	0.0	138.0	1	1.1	0.9				
	33	1	0.0	0.0	0.0	45.0	1	1.0	0.0	16.0	1	1.1	0.9				
	34	1	4.22	0.5	0.0	0.0	1	1.0	0.0	138.0	1	1.1	0.9				
	35	1	9.95	2.11	0.0	0.0	1	1.0	0.0	138.0	1	1.1	0.9				
	36	1	10.85	1.0	0.0	0.0	1	1.0	0.0	138.0	1	1.1	0.9				
	37	2	14.67	3.11	0.0	0.0	1	1.0	0.0	138.0	1	1.1	0.9				
	38	1	7.539999999999999	1.0	0.0	0.0	1	1.0	0.0	138.0	1	1.1	0.9				
	39	1	2.11	0.5	0.0	0.0	1	1.0	0.0	138.0	1	1.1	0.9				
	40	1	2.11	0.5	0.0	0.0	1	1.0	0.0	138.0	1	1.1	0.9				
	41	1	8.74	3.11	0.0	0.0	1	1.0	0.0	138.0	1	1.1	0.9				
	42	1	5.73	1.0	0.0	0.0	1	1.0	0.0	138.0	1	1.1	0.9				
	43	1	43.38	6.25	0.0	0.0	1	1.0	0.0	138.0	1	1.1	0.9				
	44	2	9.45	2.61	0.0	0.0	1	1.0	0.0	138.0	1	1.1	0.9				
	45	2	42.03	12.76	0.0	0.0	1	1.0	0.0	138.0	1	1.1	0.9				
	46	1	15.67	2.61	0.0	0.0	1	1.0	0.0	138.0	1	1.1	0.9				
	47	1	19.89	6.83	0.0	0.0	1	1.0	0.0	138.0	1	1.1	0.9				
	48	1	8.34	2.71	0.0	0.0	1	1.0	0.0	138.0	1	1.1	0.9				
	49	2	16.78	6.329999999999999	0.0	0.0	1	1.0	0.0	138.0	1	1.1	0.9				
	50	1	13.140000000000002	1.26	0.0	0.0	1	1.0	0.0	138.0	1	1.1	0.9				
	51	1	5.22	0.5	0.0	0.0	1	1.0	0.0	138.0	1	1.1	0.9				
	52	1	0.0	0.0	0.0	-16.07	1	1.0	0.0	138.0	1	1.1	0.9				
	53	1	68.66	4.97	0.0	-2.01	1	1.0	0.0	138.0	1	1.1	0.9				
	54	2	9.45	1.0	0.0	-0.93	1	1.0	0.0	138.0	1	1.1	0.9				
	55	1	8.34	3.11	0.0	0.0	1	1.0	0.0	138.0	1	1.1	0.9				
	56	1	0.0	0.0	0.0	0.0	1	1.0	0.0	138.0	1	1.1	0.9				
	57	1	19.16	2.01	0.0	0.0	1	1.0	0.0	138.0	1	1.1	0.9				
	58	2	30.44	4.22	0.0	0.0	1	1.0	0.0	138.0	1	1.1	0.9				
	59	1	18.89	4.72	0.0	0.0	1	1.0	0.0	138.0	1	1.1	0.9				
	60	2	11.55	1.0	0.0	0.0	1	1.0	0.0	138.0	1	1.1	0.9				
	61	1	17.78	4.22	0.0	0.0	1	1.0	0.0	138.0	1	1.1	0.9				
	62	1	0.0	0.0	0.0	0.0	1	1.0	0.0	138.0	1	1.1	0.9				
	63	1	0.0	0.0	0.0	-15.190000000000001	1	1.0	0.0	138.0	1	1.1	0.9				
	64	1	0.0	0.0	0.0	-14.11	1	1.0	0.0	138.0	1	1.1	0.9				
	65	1	0.0	0.0	0.0	0.0	1	1.0	0.0	500.0	1	1.1	0.9				
	66	1	0.0	0.0	0.0	30.47	2	1.0	0.0	345.0	2	1.1	0.9				
	67	1	0.0	0.0	0.0	-20.0	2	1.0	0.0	345.0	2	1.1	0.9				
	68	1	0.0	0.0	0.0	62.480000000000004	2	1.0	0.0	500.0	2	1.1	0.9				
	69	2	0.0	0.0	0.0	0.0	2	1.0	0.0	500.0	2	1.1	0.9				
	70	1	32.47	85.89	0.0	0.0	2	1.0	0.0	500.0	2	1.1	0.9				
	71	1	0.0	0.0	0.0	0.0	2	1.0	0.0	500.0	2	1.1	0.9				
	72	1	0.0	0.0	0.0	0.0	2	1.0	0.0	345.0	2	1.1	0.9				
	73	1	0.0	0.0	0.0	0.0	2	1.0	0.0	345.0	2	1.1	0.9				
	74	1	0.0	0.0	0.0	-84.68	2	1.0	0.0	345.0	2	1.1	0.9				
	75	2	0.0	0.0	0.0	0.0	2	1.0	0.0	345.0	2	1.1	0.9				
	76	1	42.84	29.609999999999996	0.0	0.0	2	1.0	0.0	345.0	2	1.1	0.9				
	77	1	0.0	0.0	0.0	83.62	2	1.0	0.0	500.0	2	1.1	0.9				
	78	1	0.0	0.0	0.0	70.0	2	1.0	0.0	500.0	2	1.1	0.9				
	79	1	0.0	0.0	0.0	0.0	2	1.0	0.0	500.0	2	1.1	0.9				
	80	2	11.0	40.0	0.0	0.0	2	1.0	0.0	500.0	2	1.1	0.9				
	81	2	5.0	10.0	0.0	0.0	2	1.0	0.0	500.0	2	1.1	0.9				
	82	1	52.71	60.23	0.0	0.0	2	1.0	0.0	345.0	2	1.1	0.9				
	83	1	6.93	3.11	0.0	0.0	2	1.0	0.0	138.0	2	1.1	0.9				
	84	2	14.649999999999999	1.0	0.0	0.0	2	1.0	0.0	138.0	2	1.1	0.9				
	85	1	8.14	1.32	0.0	0.0	2	1.0	0.0	138.0	2	1.1	0.9				
	86	1	14.17	4.22	0.0	0.0	2	1.0	0.0	138.0	2	1.1	0.9				
	87	2	4.22	1.0	0.0	0.0	2	1.0	0.0	138.0	2	1.1	0.9				
	88	1	61.49	28.470000000000002	0.0	0.0	2	1.0	0.0	138.0	2	1.1	0.9				
	89	1	0.0	0.0	0.0	48.6	2	1.0	0.0	32.0	2	1.1	0.9				
	90	1	0.0	0.0	0.0	0.0	2	1.0	0.0	138.0	2	1.1	0.9				
	91	1	3.95	20.83	0.0	0.0	2	1.0	0.0	138.0	2	1.1	0.9				
	92	1	5.22	2.11	0.0	0.0	2	1.0	0.0	138.0	2	1.1	0.9				
	93	1	2.61	1.0	0.0	0.0	2	1.0	0.0	138.0	2	1.1	0.9				
	94	2	0.01	0.01	0.0	0.0	2	1.0	0.0	138.0	2	1.1	0.9				
	95	2	0.01	0.01	0.0	0.0	2	1.0	0.0	138.0	2	1.1	0.9				
	96	1	15.67	5.22	0.0	0.0	2	1.0	0.0	138.0	2	1.1	0.9				
	97	1	16.78	4.72	0.0	0.0	2	1.0	0.0	138.0	2	1.1	0.9				
	98	1	0.0	0.0	0.0	45.0	2	1.0	0.0	16.0	2	1.1	0.9				
	99	1	4.22	0.5	0.0	0.0	2	1.0	0.0	138.0	2	1.1	0.9				
	100	1	9.95	2.11	0.0	0.0	2	1.0	0.0	138.0	2	1.1	0.9				
	101	1	10.85	1.0	0.0	0.0	2	1.0	0.0	138.0	2	1.1	0.9				
	102	2	14.67	3.11	0.0	0.0	2	1.0	0.0	138.0	2	1.1	0.9				
	103	1	7.539999999999999	1.0	0.0	0.0	2	1.0	0.0	138.0	2	1.1	0.9				
	104	1	2.11	0.5	0.0	0.0	2	1.0	0.0	138.0	2	1.1	0.9				
	105	1	2.11	0.5	0.0	0.0	2	1.0	0.0	138.0	2	1.1	0.9				
	106	1	8.74	3.11	0.0	0.0	2	1.0	0.0	138.0	2	1.1	0.9				
	107	1	5.73	1.0	0.0	0.0	2	1.0	0.0	138.0	2	1.1	0.9				
	108	1	43.11	6.25	0.0	0.0	2	1.0	0.0	138.0	2	1.1	0.9				
	109	2	9.45	2.61	0.0	0.0	2	1.0	0.0	138.0	2	1.1	0.9				
	110	2	42.03	12.76	0.0	0.0	2	1.0	0.0	138.0	2	1.1	0.9				
	111	1	15.67	2.61	0.0	0.0	2	1.0	0.0	138.0	2	1.1	0.9				
	112	1	19.89	6.83	0.0	0.0	2	1.0	0.0	138.0	2	1.1	0.9				
	113	1	8.34	2.71	0.0	0.0	2	1.0	0.0	138.0	2	1.1	0.9				
	114	2	16.78	6.329999999999999	0.0	0.0	2	1.0	0.0	138.0	2	1.1	0.9				
	115	1	13.140000000000002	1.26	0.0	0.0	2	1.0	0.0	138.0	2	1.1	0.9				
	116	1	5.22	0.5	0.0	0.0	2	1.0	0.0	138.0	2	1.1	0.9				
	117	1	0.0	0.0	0.0	-16.07	2	1.0	0.0	138.0	2	1.1	0.9				
	118	1	68.66	4.97	0.0	-2.01	2	1.0	0.0	138.0	2	1.1	0.9				
	119	2	9.45	1.0	0.0	1.92	2	1.0	0.0	138.0	2	1.1	0.9				
	120	1	8.34	3.11	0.0	0.0	2	1.0	0.0	138.0	2	1.1	0.9				
	121	1	0.0	0.0	0.0	0.0	2	1.0	0.0	138.0	2	1.1	0.9				
	122	1	19.16	2.01	0.0	0.0	2	1.0	0.0	138.0	2	1.1	0.9				
	123	2	30.44	4.22	0.0	0.0	2	1.0	0.0	138.0	2	1.1	0.9				
	124	1	18.89	4.72	0.0	0.0	2	1.0	0.0	138.0	2	1.1	0.9				
	125	2	11.55	1.0	0.0	0.0	2	1.0	0.0	138.0	2	1.1	0.9				
	126	1	17.78	4.22	0.0	0.0	2	1.0	0.0	138.0	2	1.1	0.9				
	127	1	0.0	0.0	0.0	0.0	2	1.0	0.0	138.0	2	1.1	0.9				
	128	1	0.0	0.0	0.0	-15.190000000000001	2	1.0	0.0	138.0	2	1.1	0.9				
	129	1	0.0	0.0	0.0	-14.11	2	1.0	0.0	138.0	2	1.1	0.9				
	130	1	0.0	0.0	0.0	0.0	2	1.0	0.0	500.0	2	1.1	0.9				
	131	1	40.59	70.73	0.0	0.0	3	1.0	0.0	345.0	3	1.1	0.9				
	132	1	0.0	0.0	0.0	-176.98	3	1.0	0.0	345.0	3	1.1	0.9				
	133	2	0.0	0.0	0.0	0.0	3	1.0	0.0	500.0	3	1.1	0.9				
	134	1	0.0	0.0	0.0	0.0	3	1.0	0.0	500.0	3	1.1	0.9				
	135	1	0.0	0.0	0.0	17.28	3	1.0	0.0	500.0	3	1.1	0.9				
	136	1	8.38	1.2	0.0	0.0	3	1.0	0.0	138.0	3	1.1	0.9				
	137	1	4.83	1.1	0.0	0.0	3	1.0	0.0	138.0	3	1.1	0.9				
	138	2	0.0	0.0	0.0	0.0	3	1.0	0.0	138.0	3	1.1	0.9				
	139	1	11.55	5.82	0.0	0.0	3	1.0	0.0	138.0	3	1.1	0.9				
	140	1	13.16	4.92	0.0	0.0	3	1.0	0.0	138.0	3	1.1	0.9				
	141	1	26.039999999999996	3.35	0.0	0.0	3	1.0	0.0	138.0	3	1.1	0.9				
	142	1	12.560000000000002	2.11	0.0	13.51	3	1.0	0.0	138.0	3	1.1	0.9				
	143	1	4.72	0.7	0.0	0.0	3	1.0	0.0	138.0	3	1.1	0.9				
	144	1	9.45	-3.27	0.0	0.0	3	1.0	0.0	138.0	3	1.1	0.9				
	145	1	10.15	4.22	0.0	0.0	3	1.0	0.0	138.0	3	1.1	0.9				
	146	1	0.0	0.0	0.0	0.0	3	1.0	0.0	138.0	3	1.1	0.9				
	147	1	0.0	0.0	0.0	0.0	3	1.0	0.0	138.0	3	1.1	0.9				
	148	1	0.0	0.0	0.0	0.0	3	1.0	0.0	138.0	3	1.1	0.9				
	149	1	0.0	0.0	0.0	60.0	3	1.0	0.0	16.0	3	1.1	0.9				
	150	1	17.78	4.22	0.0	0.0	3	1.0	0.0	138.0	3	1.1	0.9				
	151	1	8.04	4.12	0.0	0.0	3	1.0	0.0	138.0	3	1.1	0.9				
	152	2	0.01	0.01	0.0	0.0	3	1.0	0.0	138.0	3	1.1	0.9				
	153	2	73.33	31.39	0.0	0.0	3	1.0	0.0	138.0	3	1.1	0.9				
	154	1	62.9	26.21	0.0	0.0	3	1.0	0.0	138.0	3	1.1	0.9				
	155	1	0.0	0.0	0.0	0.0	3	1.0	0.0	138.0	3	1.1	0.9				
	156	1	8.34	2.61	0.0	0.0	3	1.0	0.0	138.0	3	1.1	0.9				
	157	1	5.12	0.68	0.0	0.0	3	1.0	0.0	138.0	3	1.1	0.9				
	158	1	15.17	4.72	0.0	0.0	3	1.0	0.0	138.0	3	1.1	0.9				
	159	1	13.66	6.329999999999999	0.0	2.71	3	1.0	0.0	138.0	3	1.1	0.9				
	160	1	8.94	2.32	0.0	3.95	3	1.0	0.0	138.0	3	1.1	0.9				
	161	1	13.99	11.8	0.0	0.0	3	1.0	0.0	138.0	3	1.1	0.9				
	162	1	9.45	2.21	0.0	0.0	3	1.0	0.0	138.0	3	1.1	0.9				
	163	1	11.55	2.61	0.0	0.0	3	1.0	0.0	138.0	3	1.1	0.9				
	164	1	3.92	1.6099999999999999	0.0	0.0	3	1.0	0.0	138.0	3	1.1	0.9				
	165	1	16.28	5.22	0.0	3.3300000000000005	3	1.0	0.0	138.0	3	1.1	0.9				
	166	1	12.46	5.82	0.0	0.0	3	1.0	0.0	138.0	3	1.1	0.9				
	167	1	0.0	0.0	0.0	15.410000000000002	3	1.0	0.0	138.0	3	1.1	0.9				
	168	1	12.560000000000002	4.22	0.0	-33.87	3	1.0	0.0	138.0	3	1.1	0.9				
	169	1	23.61	4.72	0.0	0.0	3	1.0	0.0	138.0	3	1.1	0.9				
	170	1	0.1	0.1	0.0	0.0	3	1.0	0.0	138.0	3	1.1	0.9				
	171	1	0.1	0.1	0.0	0.0	3	1.0	0.0	138.0	3	1.1	0.9				
	172	2	9.45	2.31	0.0	0.0	3	1.0	0.0	138.0	3	1.1	0.9				
	173	1	13.56	6.23	0.0	0.0	3	1.0	0.0	138.0	3	1.1	0.9				
	174	1	6.83	2.61	0.0	0.0	3	1.0	0.0	138.0	3	1.1	0.9				
	175	1	4.72	2.61	0.0	0.0	3	1.0	0.0	138.0	3	1.1	0.9				
	176	1	6.329999999999999	0.9000000000000001	0.0	0.0	3	1.0	0.0	138.0	3	1.1	0.9				
	177	1	4.12	2.51	0.0	0.0	3	1.0	0.0	138.0	3	1.1	0.9				
	178	2	0.01	0.01	0.0	0.0	3	1.0	0.0	138.0	3	1.1	0.9				
	179	1	44.31	-3.0	0.0	0.0	3	1.0	0.0	138.0	3	1.1	0.9				
	180	1	6.329999999999999	1.5700000000000003	0.0	1.7500000000000002	3	1.0	0.0	138.0	3	1.1	0.9				
	181	1	61.44	45.53	0.0	0.0	4	1.0	0.0	345.0	4	1.1	0.9				
	182	1	0.0	0.0	0.0	0.0	4	1.0	0.0	345.0	4	1.1	0.9				
	183	2	33.51	159.4	0.0	0.0	4	1.0	0.0	345.0	4	1.1	0.9				
	184	2	19.91	36.57	0.0	0.0	4	1.0	0.0	345.0	4	1.1	0.9				
	185	2	12.0	30.0	0.0	0.0	4	1.0	0.0	500.0	4	1.1	0.9				
	186	2	12.0	30.0	0.0	0.0	4	1.0	0.0	500.0	4	1.1	0.9				
	187	2	0.0	0.0	0.0	0.0	4	1.0	0.0	500.0	4	1.1	0.9				
	188	1	0.0	0.0	0.0	93.07	4	1.0	0.0	500.0	4	1.1	0.9				
	189	1	33.41	22.47	0.0	0.0	4	1.0	0.0	345.0	4	1.1	0.9				
	190	1	18.51	68.88	0.0	0.0	4	1.0	0.0	345.0	4	1.1	0.9				
	191	1	14.74	4.03	0.0	0.0	4	1.0	0.0	345.0	4	1.1	0.9				
	192	1	0.0	0.0	0.0	168.92	4	1.0	0.0	500.0	4	1.1	0.9				
	193	1	32.23	53.02	0.0	0.0	4	1.0	0.0	345.0	4	1.1	0.9				
	194	1	81.5	85.9	0.0	0.0	4	1.0	0.0	345.0	4	1.1	0.9				
	195	1	0.0	0.0	0.0	0.0	4	1.0	0.0	500.0	4	1.1	0.9				
	196	1	0.0	0.0	0.0	0.0	4	1.0	0.0	500.0	4	1.1	0.9				
	197	1	0.0	0.0	0.0	-59.0	4	1.0	0.0	500.0	4	1.1	0.9				
	198	1	10.84	2.51	0.0	0.0	4	1.0	0.0	138.0	4	1.1	0.9				
	199	2	129.48	36.94	0.0	0.0	4	1.0	0.0	138.0	4	1.1	0.9				
	200	1	0.0	0.0	0.0	0.0	4	1.0	0.0	138.0	4	1.1	0.9				
...
];

%% generator data
%    bus    Pg    Qg    Qmax    Qmin    Vg    mBase    status    Pmax    Pmin    Pc1    Pc2    Qc1min    Qc1max    Qc2min    Qc2max    ramp_agc    ramp_10    ramp_30    ramp_q    apf
mpc.gen = [
	3	0.0	0.0	33.33	-33.33	1.0	100.0	0	137.95	122.96000000000001	0.0	0.0	0.0	0.0	0.0	0.0	0.0	0.0	0.0	0.0	137.955				
	4	226.96	-34.935	279.47	-349.34	1.0	100.0	1	281.74	172.18	0.0	0.0	0.0	0.0	0.0	0.0	0.0	0.0	0.0	0.0	281.739				
	9	0.0	0.0	33.33	-33.33	1.0	100.0	0	85.25	70.25	0.0	0.0	0.0	0.0	0.0	0.0	0.0	0.0	0.0	0.0	85.248				
	10	159.645	-2.565	20.51	-25.64	1.0	100.0	1	221.78999999999996	97.5	0.0	0.0	0.0	0.0	0.0	0.0	0.0	0.0	0.0	0.0	221.788				
	15	-10.5	21.5	105.0	-62.0	1.0	216.55	1	179.0	-200.0	0.0	0.0	0.0	0.0	0.0	0.0	0.0	0.0	0.0	0.0	179.0				
	15	-10.5	21.5	105.0	-62.0	1.0	179.0	1	179.0	-200.0	0.0	0.0	0.0	0.0	0.0	0.0	0.0	0.0	0.0	0.0	179.0				
	15	-10.5	27.500000000000004	130.0	-75.0	1.0	179.0	1	179.0	-200.0	0.0	0.0	0.0	0.0	0.0	0.0	0.0	0.0	0.0	0.0	179.0				
	16	-10.5	30.0	160.0	-100.0	1.0	179.0	1	179.0	-200.0	0.0	0.0	0.0	0.0	0.0	0.0	0.0	0.0	0.0	0.0	179.0				
	19	40.5	-65.0	35.0	-165.0	1.0	58.99	1	55.00000000000001	26.0	0.0	0.0	0.0	0.0	0.0	0.0	0.0	0.0	0.0	0.0	55.0				
	20	0.0	0.0	18.33	-18.33	1.0	55.0	0	55.00000000000001	26.0	0.0	0.0	0.0	0.0	0.0	0.0	0.0	0.0	0.0	0.0	55.0				
	22	142.5	2.0	184.0	-180.0	1.0	0.36	1	285.0	0.0	0.0	0.0	0.0	0.0	0.0	0.0	0.0	0.0	0.0	0.0	285.0				
	29	9.0	0.5	178.0	-177.0	1.0	18.0	1	18.0	0.0	0.0	0.0	0.0	0.0	0.0	0.0	0.0	0.0	0.0	0.0	18.0				
	30	11.0	-0.5	179.0	-180.0	1.0	22.0	1	22.0	0.0	0.0	0.0	0.0	0.0	0.0	0.0	0.0	0.0	0.0	0.0	22.0				
	37	148.0	9.0	186.0	-168.0	1.0	0.24	1	296.0	0.0	0.0	0.0	0.0	0.0	0.0	0.0	0.0	0.0	0.0	0.0	296.0				
	44	135.0	4.5	178.0	-169.0	1.0	2.0	1	269.0	1.0	0.0	0.0	0.0	0.0	0.0	0.0	0.0	0.0	0.0	0.0	269.0				
	45	7.5	11.0	188.0	-166.0	1.0	15.0	1	15.0	0.0	0.0	0.0	0.0	0.0	0.0	0.0	0.0	0.0	0.0	0.0	15.0				
	49	142.5	5.5	191.0	-180.0	1.0	1.0	1	285.0	0.0	0.0	0.0	0.0	0.0	0.0	0.0	0.0	0.0	0.0	0.0	285.0				
	54	129.0	10.0	189.0	-169.0	1.0	0.12	1	258.0	0.0	0.0	0.0	0.0	0.0	0.0	0.0	0.0	0.0	0.0	0.0	258.0				
	54	0.0	0.0	33.33	-33.33	1.0	100.0	0	34.44	19.44	0.0	0.0	0.0	0.0	0.0	0.0	0.0	0.0	0.0	0.0	34.44				
	58	148.5	9.0	198.0	-180.0	1.0	9.0	1	297.0	0.0	0.0	0.0	0.0	0.0	0.0	0.0	0.0	0.0	0.0	0.0	297.0				
	60	139.0	-2.5	179.0	-184.0	1.0	0.24	1	278.0	0.0	0.0	0.0	0.0	0.0	0.0	0.0	0.0	0.0	0.0	0.0	278.0				
	68	0.0	0.0	33.33	-33.33	1.0	100.0	0	137.95	122.96000000000001	0.0	0.0	0.0	0.0	0.0	0.0	0.0	0.0	0.0	0.0	137.955				
	69	226.96	-35.27	282.12	-352.66	1.0	100.0	1	281.74	172.18	0.0	0.0	0.0	0.0	0.0	0.0	0.0	0.0	0.0	0.0	281.739				
	74	0.0	0.0	33.33	-33.33	1.0	100.0	0	85.25	70.25	0.0	0.0	0.0	0.0	0.0	0.0	0.0	0.0	0.0	0.0	85.248				
	75	149.935	-5.19	41.51	-51.89	1.0	100.0	1	221.78999999999996	78.08	0.0	0.0	0.0	0.0	0.0	0.0	0.0	0.0	0.0	0.0	221.788				
	80	-10.5	21.5	105.0	-62.0	1.0	216.55	1	179.0	-200.0	0.0	0.0	0.0	0.0	0.0	0.0	0.0	0.0	0.0	0.0	179.0				
	80	-10.5	21.5	105.0	-62.0	1.0	179.0	1	179.0	-200.0	0.0	0.0	0.0	0.0	0.0	0.0	0.0	0.0	0.0	0.0	179.0				
	80	-10.5	27.500000000000004	130.0	-75.0	1.0	179.0	1	179.0	-200.0	0.0	0.0	0.0	0.0	0.0	0.0	0.0	0.0	0.0	0.0	179.0				
	81	-10.5	30.0	160.0	-100.0	1.0	179.0	1	179.0	-200.0	0.0	0.0	0.0	0.0	0.0	0.0	0.0	0.0	0.0	0.0	179.0				
	84	40.5	-70.0	35.0	-175.0	1.0	58.99	1	55.00000000000001	26.0	0.0	0.0	0.0	0.0	0.0	0.0	0.0	0.0	0.0	0.0	55.0				
	85	0.0	0.0	18.33	-18.33	1.0	55.0	0	55.00000000000001	26.0	0.0	0.0	0.0	0.0	0.0	0.0	0.0	0.0	0.0	0.0	55.0				
	87	128.0	9.5	197.0	-178.0	1.0	0.36	1	256.0	0.0	0.0	0.0	0.0	0.0	0.0	0.0	0.0	0.0	0.0	0.0	256.0				
	94	9.0	4.5	179.0	-170.0	1.0	18.0	1	18.0	0.0	0.0	0.0	0.0	0.0	0.0	0.0	0.0	0.0	0.0	0.0	18.0				
	95	11.0	7.5	199.0	-184.0	1.0	22.0	1	22.0	0.0	0.0	0.0	0.0	0.0	0.0	0.0	0.0	0.0	0.0	0.0	22.0				
	102	134.0	8.0	182.0	-166.0	1.0	0.24	1	268.0	0.0	0.0	0.0	0.0	0.0	0.0	0.0	0.0	0.0	0.0	0.0	268.0				
	109	134.5	3.5000000000000004	191.0	-184.0	1.0	2.0	1	268.0	1.0	0.0	0.0	0.0	0.0	0.0	0.0	0.0	0.0	0.0	0.0	268.0				
	110	7.5	7.5	191.0	-176.0	1.0	15.0	1	15.0	0.0	0.0	0.0	0.0	0.0	0.0	0.0	0.0	0.0	0.0	0.0	15.0				
	114	149.0	6.0	183.0	-171.0	1.0	1.0	1	298.0	0.0	0.0	0.0	0.0	0.0	0.0	0.0	0.0	0.0	0.0	0.0	298.0				
	119	141.5	12.5	192.0	-167.0	1.0	0.12	1	283.0	0.0	0.0	0.0	0.0	0.0	0.0	0.0	0.0	0.0	0.0	0.0	283.0				
	119	0.0	0.0	33.33	-33.33	1.0	100.0	0	34.44	19.44	0.0	0.0	0.0	0.0	0.0	0.0	0.0	0.0	0.0	0.0	34.44				
	123	132.0	14.000000000000002	200.0	-172.0	1.0	9.0	1	264.0	0.0	0.0	0.0	0.0	0.0	0.0	0.0	0.0	0.0	0.0	0.0	264.0				
	125	126.49999999999999	14.499999999999998	196.0	-167.0	1.0	0.24	1	252.99999999999997	0.0	0.0	0.0	0.0	0.0	0.0	0.0	0.0	0.0	0.0	0.0	253.0				
	132	0.0	0.0	33.33	-33.33	1.0	100.0	0	35.29	20.29	0.0	0.0	0.0	0.0	0.0	0.0	0.0	0.0	0.0	0.0	35.288				
	133	227.105	0.0	202.93	-202.93	1.0	100.0	1	393.52	60.69	0.0	0.0	0.0	0.0	0.0	0.0	0.0	0.0	0.0	0.0	393.516				
	135	0.0	0.0	33.33	-33.33	1.0	100.0	0	101.88999999999999	86.89	0.0	0.0	0.0	0.0	0.0	0.0	0.0	0.0	0.0	0.0	101.886				
	138	22.1	0.0	12.48	-12.48	1.0	100.0	1	33.73	10.47	0.0	0.0	0.0	0.0	0.0	0.0	0.0	0.0	0.0	0.0	33.726				
	142	0.0	0.0	33.33	-33.33	1.0	100.0	0	25.239999999999995	10.24	0.0	0.0	0.0	0.0	0.0	0.0	0.0	0.0	0.0	0.0	25.238				
	144	0.0	0.0	2.33	-2.33	1.0	7.0	0	270.0	5.0	0.0	0.0	0.0	0.0	0.0	0.0	0.0	0.0	0.0	0.0	270.0				
	152	20.5	10.5	192.0	-171.0	1.0	41.0	1	41.0	0.0	0.0	0.0	0.0	0.0	0.0	0.0	0.0	0.0	0.0	0.0	41.0				
	153	12.5	-77.26	23.48	-178.0	1.0	37.52	1	25.0	0.0	0.0	0.0	0.0	0.0	0.0	0.0	0.0	0.0	0.0	0.0	25.0				
	153	17.5	-68.78	32.44	-170.0	1.0	35.0	1	35.0	0.0	0.0	0.0	0.0	0.0	0.0	0.0	0.0	0.0	0.0	0.0	35.0				
	153	0.0	0.0	8.33	-8.33	1.0	25.0	0	25.0	0.0	0.0	0.0	0.0	0.0	0.0	0.0	0.0	0.0	0.0	0.0	25.0				
	157	0.0	0.0	0.67	-0.67	1.0	2.0	0	266.0	0.0	0.0	0.0	0.0	0.0	0.0	0.0	0.0	0.0	0.0	0.0	266.0				
	159	0.0	0.0	33.33	-33.33	1.0	100.0	0	52.21	37.21	0.0	0.0	0.0	0.0	0.0	0.0	0.0	0.0	0.0	0.0	52.208				
	160	0.0	0.0	33.33	-33.33	1.0	100.0	0	274.0	0.0	0.0	0.0	0.0	0.0	0.0	0.0	0.0	0.0	0.0	0.0	274.0				
	167	0.0	0.0	33.33	-33.33	1.0	100.0	0	27.97	12.97	0.0	0.0	0.0	0.0	0.0	0.0	0.0	0.0	0.0	0.0	27.972				
	168	0.0	0.0	33.33	-33.33	1.0	100.0	0	26.839999999999996	11.84	0.0	0.0	0.0	0.0	0.0	0.0	0.0	0.0	0.0	0.0	26.842				
	172	138.0	-1.5	181.0	-184.0	1.0	0.36	1	276.0	0.0	0.0	0.0	0.0	0.0	0.0	0.0	0.0	0.0	0.0	0.0	276.0				
	178	9.0	1.0	185.0	-183.0	1.0	18.0	1	18.0	0.0	0.0	0.0	0.0	0.0	0.0	0.0	0.0	0.0	0.0	0.0	18.0				
	180	0.0	0.0	1.33	-1.33	1.0	4.0	0	277.0	0.0	0.0	0.0	0.0	0.0	0.0	0.0	0.0	0.0	0.0	0.0	277.0				
	183	170.0	58.875	138.75	-21.0	1.0	253.76	1	204.99999999999997	135.0	0.0	0.0	0.0	0.0	0.0	0.0	0.0	0.0	0.0	0.0	205.0				
	184	0.0	0.0	74.0	-74.0	1.0	222.0	0	222.00000000000003	90.0	0.0	0.0	0.0	0.0	0.0	0.0	0.0	0.0	0.0	0.0	222.0				
	184	0.0	0.0	68.33	-68.33	1.0	205.0	0	204.99999999999997	135.0	0.0	0.0	0.0	0.0	0.0	0.0	0.0	0.0	0.0	0.0	205.0				
	184	166.0	44.0	119.0	-31.0	1.0	232.0	1	231.99999999999997	100.0	0.0	0.0	0.0	0.0	0.0	0.0	0.0	0.0	0.0	0.0	232.0				
	185	170.215	56.25	127.49999999999999	-15.0	1.0	268.92	1	250.43	90.0	0.0	0.0	0.0	0.0	0.0	0.0	0.0	0.0	0.0	0.0	250.434				
	186	0.0	0.0	77.33	-77.33	1.0	232.0	0	231.99999999999997	100.0	0.0	0.0	0.0	0.0	0.0	0.0	0.0	0.0	0.0	0.0	232.0				
	186	170.0	56.25	127.49999999999999	-15.0	1.0	268.92	1	250.0	90.0	0.0	0.0	0.0	0.0	0.0	0.0	0.0	0.0	0.0	0.0	250.0				
	187	924.65	-9.035	72.29	-90.36	1.0	100.0	1	1241.44	607.86	0.0	0.0	0.0	0.0	0.0	0.0	0.0	0.0	0.0	0.0	1241.4449				
	199	156.0	49.0	117.0	-19.0	1.0	222.0	1	222.00000000000003	90.0	0.0	0.0	0.0	0.0	0.0	0.0	0.0	0.0	0.0	0.0	222.0				
	205	149.54	11.0	193.0	-171.0	1.0	4.0	1	297.0	2.08	0.0	0.0	0.0	0.0	0.0	0.0	0.0	0.0	0.0	0.0	297.0				
	205	0.0	0.0	33.33	-33.33	1.0	100.0	0	28.32	13.309999999999999	0.0	0.0	0.0	0.0	0.0	0.0	0.0	0.0	0.0	0.0	28.315				
	206	0.0	0.0	33.33	-33.33	1.0	100.0	0	34.72	19.72	0.0	0.0	0.0	0.0	0.0	0.0	0.0	0.0	0.0	0.0	34.719				
	210	130.25	13.0	194.0	-168.0	1.0	6.0	1	258.0	2.5	0.0	0.0	0.0	0.0	0.0	0.0	0.0	0.0	0.0	0.0	258.0				
	222	13.0	7.5	192.0	-177.0	1.0	26.0	1	26.0	0.0	0.0	0.0	0.0	0.0	0.0	0.0	0.0	0.0	0.0	0.0	26.0				
	222	0.0	0.0	33.33	-33.33	1.0	100.0	0	273.0	0.27	0.0	0.0	0.0	0.0	0.0	0.0	0.0	0.0	0.0	0.0	273.0				
	226	130.5	13.5	198.0	-171.0	1.0	2.0	1	261.0	0.0	0.0	0.0	0.0	0.0	0.0	0.0	0.0	0.0	0.0	0.0	261.0				
	227	25.0	8.0	188.0	-172.0	1.0	50.0	1	50.0	0.0	0.0	0.0	0.0	0.0	0.0	0.0	0.0	0.0	0.0	0.0	50.0				
	230	127.0	-2.0	179.0	-183.0	1.0	108.13	1	254.0	0.0	0.0	0.0	0.0	0.0	0.0	0.0	0.0	0.0	0.0	0.0	254.0				
	237	0.0	0.0	23.73	-23.73	1.0	71.2	0	45.15	0.0	0.0	0.0	0.0	0.0	0.0	0.0	0.0	0.0	0.0	0.0	45.15				
	237	0.0	0.0	23.73	-23.73	1.0	71.2	0	45.15	0.0	0.0	0.0	0.0	0.0	0.0	0.0	0.0	0.0	0.0	0.0	45.15				
	248	0.0	0.0	33.33	-33.33	1.0	100.0	0	298.0	8.35	0.0	0.0	0.0	0.0	0.0	0.0	0.0	0.0	0.0	0.0	298.0				
	271	33.485	-1.6500000000000001	13.209999999999999	-16.51	1.0	100.0	1	50.41	16.56	0.0	0.0	0.0	0.0	0.0	0.0	0.0	0.0	0.0	0.0	50.412				
	275	118.06	0.0	27.49	-27.49	1.0	100.0	1	146.28	89.84	0.0	0.0	0.0	0.0	0.0	0.0	0.0	0.0	0.0	0.0	146.284				
	278	18.225	0.0	24.5	-24.5	1.0	100.0	1	26.700000000000003	9.75	0.0	0.0	0.0	0.0	0.0	0.0	0.0	0.0	0.0	0.0	26.697				
	280	0.0	0.0	23.73	-23.73	1.0	71.2	0	45.15	0.0	0.0	0.0	0.0	0.0	0.0	0.0	0.0	0.0	0.0	0.0	45.15				
	280	0.0	0.0	23.73	-23.73	1.0	71.2	0	45.15	0.0	0.0	0.0	0.0	0.0	0.0	0.0	0.0	0.0	0.0	0.0	45.15				
	281	41.745	94.725	198.0	-8.55	1.0	100.0	1	64.19	19.3	0.0	0.0	0.0	0.0	0.0	0.0	0.0	0.0	0.0	0.0	64.187				
	296	579.815	1.0	101.0	-99.0	1.0	600.0	1	825.3	334.33	0.0	0.0	0.0	0.0	0.0	0.0	0.0	0.0	0.0	0.0	825.299				
	296	594.89	1.0	101.0	-99.0	1.0	600.0	1	846.64	343.14	0.0	0.0	0.0	0.0	0.0	0.0	0.0	0.0	0.0	0.0	846.641				
	309	0.0	0.0	43.33	-43.33	1.0	130.0	0	158.49	28.499999999999996	0.0	0.0	0.0	0.0	0.0	0.0	0.0	0.0	0.0	0.0	158.49				
	309	0.0	0.0	43.33	-43.33	1.0	130.0	0	156.39	28.499999999999996	0.0	0.0	0.0	0.0	0.0	0.0	0.0	0.0	0.0	0.0	156.39				
	315	0.0	0.0	23.73	-23.73	1.0	71.2	0	45.15	0.0	0.0	0.0	0.0	0.0	0.0	0.0	0.0	0.0	0.0	0.0	45.15				
	315	0.0	0.0	23.73	-23.73	1.0	71.2	0	45.15	0.0	0.0	0.0	0.0	0.0	0.0	0.0	0.0	0.0	0.0	0.0	45.15				
	326	31.7	87.655	180.0	-4.69	1.0	100.0	1	41.4	22.0	0.0	0.0	0.0	0.0	0.0	0.0	0.0	0.0	0.0	0.0	41.398				
	352	0.0	0.0	19.0	-19.0	1.0	57.0	0	66.3	51.300000000000004	0.0	0.0	0.0	0.0	0.0	0.0	0.0	0.0	0.0	0.0	66.3				
	352	0.0	0.0	19.0	-19.0	1.0	57.0	0	64.4	49.4	0.0	0.0	0.0	0.0	0.0	0.0	0.0	0.0	0.0	0.0	64.4				
	353	0.0	0.0	33.33	-33.33	1.0	100.0	0	25.66	10.66	0.0	0.0	0.0	0.0	0.0	0.0	0.0	0.0	0.0	0.0	25.66				
	355	0.0	0.0	7.670000000000001	-7.670000000000001	1.0	23.0	0	32.1	17.1	0.0	0.0	0.0	0.0	0.0	0.0	0.0	0.0	0.0	0.0	32.1				
	355	0.0	0.0	7.670000000000001	-7.670000000000001	1.0	23.0	0	32.1	17.1	0.0	0.0	0.0	0.0	0.0	0.0	0.0	0.0	0.0	0.0	32.1				
	356	0.0	0.0	51.33	-51.33	1.0	154.0	0	267.0	0.0	0.0	0.0	0.0	0.0	0.0	0.0	0.0	0.0	0.0	0.0	267.0				
	359	0.0	0.0	7.670000000000001	-7.670000000000001	1.0	23.0	0	33.05	18.05	0.0	0.0	0.0	0.0	0.0	0.0	0.0	0.0	0.0	0.0	33.05				
	359	0.0	0.0	7.670000000000001	-7.670000000000001	1.0	23.0	0	32.1	17.1	0.0	0.0	0.0	0.0	0.0	0.0	0.0	0.0	0.0	0.0	32.1				
	361	140.0	9.5	199.0	-180.0	1.0	100.0	1	280.0	0.0	0.0	0.0	0.0	0.0	0.0	0.0	0.0	0.0	0.0	0.0	280.0				
	361	12.25	97.73	198.0	-2.54	1.0	71.0	1	19.75	4.75	0.0	0.0	0.0	0.0	0.0	0.0	0.0	0.0	0.0	0.0	19.75				
	361	0.0	0.0	1.33	-1.33	1.0	4.0	0	264.0	1.14	0.0	0.0	0.0	0.0	0.0	0.0	0.0	0.0	0.0	0.0	264.0				
	362	78.815	94.815	197.0	-7.37	1.0	100.0	1	92.8	64.83	0.0	0.0	0.0	0.0	0.0	0.0	0.0	0.0	0.0	0.0	92.796				
	364	0.0	0.0	19.0	-19.0	1.0	57.0	0	66.3	51.300000000000004	0.0	0.0	0.0	0.0	0.0	0.0	0.0	0.0	0.0	0.0	66.3				
	364	0.0	0.0	19.0	-19.0	1.0	57.0	0	61.55	46.55	0.0	0.0	0.0	0.0	0.0	0.0	0.0	0.0	0.0	0.0	61.55				
	365	0.0	0.0	33.33	-33.33	1.0	100.0	0	250.99999999999997	1.42	0.0	0.0	0.0	0.0	0.0	0.0	0.0	0.0	0.0	0.0	251.0				
	365	139.065	96.74	195.0	-1.52	1.0	100.0	1	273.0	5.13	0.0	0.0	0.0	0.0	0.0	0.0	0.0	0.0	0.0	0.0	273.0				
	366	164.085	0.0	26.69	-26.69	1.0	100.0	1	196.9	131.27	0.0	0.0	0.0	0.0	0.0	0.0	0.0	0.0	0.0	0.0	196.904				
	368	73.69	98.17	199.0	-2.66	1.0	100.0	1	87.21	60.17	0.0	0.0	0.0	0.0	0.0	0.0	0.0	0.0	0.0	0.0	87.208				
	369	0.0	0.0	10.0	-10.0	1.0	30.0	0	37.8	22.8	0.0	0.0	0.0	0.0	0.0	0.0	0.0	0.0	0.0	0.0	37.8				
	369	0.0	0.0	10.0	-10.0	1.0	30.0	0	37.8	22.8	0.0	0.0	0.0	0.0	0.0	0.0	0.0	0.0	0.0	0.0	37.8				
	371	0.0	0.0	7.670000000000001	-7.670000000000001	1.0	23.0	0	32.1	17.1	0.0	0.0	0.0	0.0	0.0	0.0	0.0	0.0	0.0	0.0	32.1				
	371	0.0	0.0	7.670000000000001	-7.670000000000001	1.0	23.0	0	32.1	17.1	0.0	0.0	0.0	0.0	0.0	0.0	0.0	0.0	0.0	0.0	32.1				
	375	0.0	0.0	33.33	-33.33	1.0	100.0	0	139.83	124.83	0.0	0.0	0.0	0.0	0.0	0.0	0.0	0.0	0.0	0.0	139.826				
	382	0.0	0.0	46.67	-46.67	1.0	140.0	0	281.0	0.0	0.0	0.0	0.0	0.0	0.0	0.0	0.0	0.0	0.0	0.0	281.0				
	385	37.075	0.0	14.790000000000001	-14.790000000000001	1.0	100.0	1	47.26	26.890000000000004	0.0	0.0	0.0	0.0	0.0	0.0	0.0	0.0	0.0	0.0	47.263				
	388	0.0	0.0	10.0	-10.0	1.0	30.0	0	35.9	20.9	0.0	0.0	0.0	0.0	0.0	0.0	0.0	0.0	0.0	0.0	35.9				
	388	0.0	0.0	10.0	-10.0	1.0	30.0	0	36.85	21.85	0.0	0.0	0.0	0.0	0.0	0.0	0.0	0.0	0.0	0.0	36.85				
	390	581.425	0.0	33.19	-33.19	1.0	100.0	1	697.71	465.14	0.0	0.0	0.0	0.0	0.0	0.0	0.0	0.0	0.0	0.0	697.71				
	395	268.01	0.0	34.72	-34.72	1.0	100.0	1	321.61	214.41	0.0	0.0	0.0	0.0	0.0	0.0	0.0	0.0	0.0	0.0	321.615				
	398	0.0	0.0	7.670000000000001	-7.670000000000001	1.0	23.0	0	32.1	17.1	0.0	0.0	0.0	0.0	0.0	0.0	0.0	0.0	0.0	0.0	32.1				
	398	0.0	0.0	7.670000000000001	-7.670000000000001	1.0	23.0	0	33.05	18.05	0.0	0.0	0.0	0.0	0.0	0.0	0.0	0.0	0.0	0.0	33.05				
	400	0.0	0.0	66.67	-66.67	1.0	200.0	0	155.4	140.6	0.0	0.0	0.0	0.0	0.0	0.0	0.0	0.0	0.0	0.0	155.4				
	401	0.0	0.0	51.33	-51.33	1.0	154.0	0	271.0	0.0	0.0	0.0	0.0	0.0	0.0	0.0	0.0	0.0	0.0	0.0	271.0				
	407	0.0	0.0	50.0	-50.0	1.0	150.0	0	294.0	242.25	0.0	0.0	0.0	0.0	0.0	0.0	0.0	0.0	0.0	0.0	294.0				
	411	143.0	9.0	190.0	-172.0	1.0	100.0	1	286.0	0.0	0.0	0.0	0.0	0.0	0.0	0.0	0.0	0.0	0.0	0.0	286.0				
	414	359.305	0.0	53.15	-53.15	1.0	100.0	1	431.17	287.44	0.0	0.0	0.0	0.0	0.0	0.0	0.0	0.0	0.0	0.0	431.167				
	422	50.47999999999999	-2.31	18.48	-23.1	1.0	100.0	1	65.27	35.69	0.0	0.0	0.0	0.0	0.0	0.0	0.0	0.0	0.0	0.0	65.268				
	423	106.87500000000001	36.0	73.0	-1.0	1.0	163.45	1	143.75	70.0	0.0	0.0	0.0	0.0	0.0	0.0	0.0	0.0	0.0	0.0	143.75				
	424	106.87500000000001	36.0	73.0	-1.0	1.0	148.19	1	143.75	70.0	0.0	0.0	0.0	0.0	0.0	0.0	0.0	0.0	0.0	0.0	143.75				
	424	0.0	0.0	33.33	-33.33	1.0	100.0	0	28.1	13.100000000000001	0.0	0.0	0.0	0.0	0.0	0.0	0.0	0.0	0.0	0.0	28.104				
	440	84.75	35.0	110.00000000000001	-40.0	1.0	147.7	1	137.5	32.0	0.0	0.0	0.0	0.0	0.0	0.0	0.0	0.0	0.0	0.0	137.5				
	441	0.0	0.0	37.67	-37.67	1.0	113.0	0	112.99999999999999	32.0	0.0	0.0	0.0	0.0	0.0	0.0	0.0	0.0	0.0	0.0	113.0				
	445	0.0	0.0	45.0	-45.0	1.0	135.0	0	135.0	35.0	0.0	0.0	0.0	0.0	0.0	0.0	0.0	0.0	0.0	0.0	135.0				
	455	0.0	0.0	8.33	-8.33	1.0	25.0	0	25.0	10.0	0.0	0.0	0.0	0.0	0.0	0.0	0.0	0.0	0.0	0.0	25.0				
	455	0.0	0.0	8.33	-8.33	1.0	25.0	0	25.0	10.0	0.0	0.0	0.0	0.0	0.0	0.0	0.0	0.0	0.0	0.0	25.0				
	455	20.625	5.5	179.0	-168.0	1.0	30.0	1	31.25	10.0	0.0	0.0	0.0	0.0	0.0	0.0	0.0	0.0	0.0	0.0	31.25				
	455	17.5	5.0	192.0	-182.0	1.0	25.0	1	25.0	10.0	0.0	0.0	0.0	0.0	0.0	0.0	0.0	0.0	0.0	0.0	25.0				
	457	0.0	0.0	33.33	-33.33	1.0	100.0	0	259.0	2.4	0.0	0.0	0.0	0.0	0.0	0.0	0.0	0.0	0.0	0.0	259.0				
	458	0.0	0.0	16.67	-16.67	1.0	50.0	0	50.0	10.0	0.0	0.0	0.0	0.0	0.0	0.0	0.0	0.0	0.0	0.0	50.0				
	475	95.0	36.0	73.0	-1.0	1.0	120.0	1	120.0	70.0	0.0	0.0	0.0	0.0	0.0	0.0	0.0	0.0	0.0	0.0	120.0				
	475	89.165	36.0	73.0	-1.0	1.0	120.0	1	120.0	58.32999999999999	0.0	0.0	0.0	0.0	0.0	0.0	0.0	0.0	0.0	0.0	120.0				
	476	177.555	35.875	73.0	-1.25	1.0	144.0	1	254.99	100.12	0.0	0.0	0.0	0.0	0.0	0.0	0.0	0.0	0.0	0.0	254.988				
	476	0.0	0.0	36.67	-36.67	1.0	110.0	0	110.00000000000001	79.0	0.0	0.0	0.0	0.0	0.0	0.0	0.0	0.0	0.0	0.0	110.0				
	480	0.0	0.0	33.33	-33.33	1.0	100.0	0	62.470000000000006	47.47	0.0	0.0	0.0	0.0	0.0	0.0	0.0	0.0	0.0	0.0	62.466				
	483	0.0	0.0	33.33	-33.33	1.0	100.0	0	259.0	8.27	0.0	0.0	0.0	0.0	0.0	0.0	0.0	0.0	0.0	0.0	259.0				
	514	41.15	0.0	87.18	-87.18	1.0	100.0	1	79.66	2.64	0.0	0.0	0.0	0.0	0.0	0.0	0.0	0.0	0.0	0.0	79.663				
	545	0.0	0.0	123.33000000000001	-123.33000000000001	1.0	370.0	0	370.0	240.0	0.0	0.0	0.0	0.0	0.0	0.0	0.0	0.0	0.0	0.0	370.0				
	545	0.0	0.0	123.33000000000001	-123.33000000000001	1.0	370.0	0	370.0	240.0	0.0	0.0	0.0	0.0	0.0	0.0	0.0	0.0	0.0	0.0	370.0				
	545	335.625	83.125	190.0	-23.75	1.0	449.45	1	431.25	240.0	0.0	0.0	0.0	0.0	0.0	0.0	0.0	0.0	0.0	0.0	431.25				
	546	351.25	83.125	190.0	-23.75	1.0	455.56	1	462.5	240.0	0.0	0.0	0.0	0.0	0.0	0.0	0.0	0.0	0.0	0.0	462.5				
	546	305.0	84.08	190.0	-21.84	1.0	397.31	1	370.0	240.0	0.0	0.0	0.0	0.0	0.0	0.0	0.0	0.0	0.0	0.0	370.0				
	547	722.385	85.5	190.0	-19.0	1.0	616.84	1	1090.99	353.78	0.0	0.0	0.0	0.0	0.0	0.0	0.0	0.0	0.0	0.0	1090.993				
	547	722.385	85.5	190.0	-19.0	1.0	616.84	1	1090.99	353.78	0.0	0.0	0.0	0.0	0.0	0.0	0.0	0.0	0.0	0.0	1090.993				
	547	722.385	85.5	190.0	-19.0	1.0	616.84	1	1090.99	353.78	0.0	0.0	0.0	0.0	0.0	0.0	0.0	0.0	0.0	0.0	1090.993				
	548	351.25	104.205	227.40999999999997	-19.0	1.0	451.84	1	462.5	240.0	0.0	0.0	0.0	0.0	0.0	0.0	0.0	0.0	0.0	0.0	462.5				
	548	332.5	85.5	190.0	-19.0	1.0	416.51	1	425.0	240.0	0.0	0.0	0.0	0.0	0.0	0.0	0.0	0.0	0.0	0.0	425.0				
	548	332.5	85.5	190.0	-19.0	1.0	416.51	1	425.0	240.0	0.0	0.0	0.0	0.0	0.0	0.0	0.0	0.0	0.0	0.0	425.0				
	557	120.42500000000001	0.0	133.54	-133.54	1.0	100.0	1	156.95	83.9	0.0	0.0	0.0	0.0	0.0	0.0	0.0	0.0	0.0	0.0	156.952				
	560	114.58500000000001	45.625	106.25	-15.0	1.0	166.81	1	137.5	91.67	0.0	0.0	0.0	0.0	0.0	0.0	0.0	0.0	0.0	0.0	137.5				
	560	0.0	0.0	40.0	-40.0	1.0	120.0	0	120.0	100.0	0.0	0.0	0.0	0.0	0.0	0.0	0.0	0.0	0.0	0.0	120.0				
	570	338.75	109.25	237.5	-19.0	1.0	477.9	1	437.5	240.0	0.0	0.0	0.0	0.0	0.0	0.0	0.0	0.0	0.0	0.0	437.5				
	574	15.0	0.0	179.0	-179.0	1.0	30.0	1	30.0	0.0	0.0	0.0	0.0	0.0	0.0	0.0	0.0	0.0	0.0	0.0	30.0				
	580	130.5	-2.0	178.0	-182.0	1.0	0.43	1	261.0	0.0	0.0	0.0	0.0	0.0	0.0	0.0	0.0	0.0	0.0	0.0	261.0				
];

%% branch data
%    f_bus    t_bus    r    x    b    rateA    rateB    rateC    ratio    angle    status    angmin    angmax
mpc.branch = [
	1	10	0.00186	0.02155	0.05317	461.00000000000006	461.00000000000006	461.00000000000006	0	0	1	-29.999999999999996	29.999999999999996								
	2	3	0.00051	0.0275	0.0	400.0	400.0	400.0	1.07702	0.0	1	-29.999999999999996	29.999999999999996								
	2	17	0.00568	0.04215	0.0716	317.0	317.0	317.0	0	0	1	-29.999999999999996	29.999999999999996								
	3	14	0.00131	0.01547	0.41152	838.0000000000001	838.0000000000001	838.0000000000001	0	0	1	-29.999999999999996	29.999999999999996								
	3	70	0.0001	0.01	0.0	158.96	190.75	238.44	0	0	1	-29.999999999999996	29.999999999999996								
	4	5	1.0e-5	6.0e-5	0.0	1593.0	1593.0	1593.0	0	0	1	-29.999999999999996	29.999999999999996								
	6	4	0.00084	0.06858	0.0	250.0	250.0	250.0	0.9999	0.0	1	-29.999999999999996	29.999999999999996								
	4	65	0.00033	0.00388	0.10475	831.0	831.0	831.0	0	0	1	-29.999999999999996	29.999999999999996								
	4	77	0.0001	0.01	0.0	126.64	151.97	189.97	0	0	1	-29.999999999999996	29.999999999999996								
	5	12	0.0024	0.02795	0.75408	838.0000000000001	838.0000000000001	838.0000000000001	0	0	1	-29.999999999999996	29.999999999999996								
	5	16	0.00133	0.01553	0.41898	831.0	831.0	831.0	0	0	1	-29.999999999999996	29.999999999999996								
	5	68	0.0001	0.01	0.0	149.53	179.43	224.29000000000002	0	0	1	-29.999999999999996	29.999999999999996								
	23	6	0.00044	-0.00422	0.0	250.0	250.0	250.0	1.06772	0.0	1	-29.999999999999996	29.999999999999996								
	24	6	0.00496	0.06982	0.0	64.99	84.49	84.49	0.98438	0.0	1	-29.999999999999996	29.999999999999996								
	7	8	2.0e-5	0.00021	0.0	876.0	876.0	876.0	0	0	1	-29.999999999999996	29.999999999999996								
	7	10	0.02738	0.14254	0.20047	222.00000000000003	222.00000000000003	222.00000000000003	0	0	1	-29.999999999999996	29.999999999999996								
	25	7	0.00015	0.06524	0.0	160.0	160.0	160.0	1.07325	0.0	1	-29.999999999999996	29.999999999999996								
	8	17	0.01909	0.11277	0.16673	197.0	197.0	197.0	0	0	1	-29.999999999999996	29.999999999999996								
	26	8	0.00027	0.06715	0.0	160.0	160.0	160.0	1.08282	0.0	1	-29.999999999999996	29.999999999999996								
	9	10	2.0e-5	0.00021	0.0	876.0	876.0	876.0	0	0	1	-29.999999999999996	29.999999999999996								
	9	76	0.0001	0.01	0.0	83.7	98.6	125.55000000000001	0	0	1	-29.999999999999996	29.999999999999996								
	11	10	0.00076	0.0789	0.0	243.52999999999997	316.58	316.58	0.9999	0.0	1	-29.999999999999996	29.999999999999996								
	10	66	0.0001	0.01	0.0	83.7	98.6	125.55000000000001	0	0	1	-29.999999999999996	29.999999999999996								
	33	11	-0.00017	0.16709	0.0	260.0	312.0	390.0	0.94157	0.0	1	-29.999999999999996	29.999999999999996								
	11	75	0.0001	0.01	0.0	83.7	98.6	125.55000000000001	0	0	1	-29.999999999999996	29.999999999999996								
	12	69	0.0001	0.01	0.0	129.32	155.19	193.98	0	0	1	-29.999999999999996	29.999999999999996								
	13	14	1.0e-5	6.0e-5	0.0	1593.0	1593.0	1593.0	0	0	1	-29.999999999999996	29.999999999999996								
	13	15	0.0015	0.01768	0.46944	831.0	831.0	831.0	0	0	1	-29.999999999999996	29.999999999999996								
	52	13	0.00059	0.04206	0.0	330.0	330.0	330.0	1.04877	0.0	1	-29.999999999999996	29.999999999999996								
	15	16	1.0e-5	6.0e-5	0.0	1593.0	1593.0	1593.0	0	0	1	-29.999999999999996	29.999999999999996								
	63	15	0.00137	0.05969	0.0	250.0	250.0	250.0	1.05449	0.0	1	-29.999999999999996	29.999999999999996								
	64	15	0.00137	0.05969	0.0	250.0	250.0	250.0	1.05312	0.0	1	-29.999999999999996	29.999999999999996								
	15	65	0.001	0.01165	0.31426	831.0	831.0	831.0	0	0	1	-29.999999999999996	29.999999999999996								
	18	37	0.021	0.0679	0.00696	101.0	101.0	101.0	0	0	1	-29.999999999999996	29.999999999999996								
	18	63	0.02139	0.06954	0.00729	120.0	120.0	120.0	0	0	1	-29.999999999999996	29.999999999999996								
	19	20	8.0e-5	0.00083	0.0	438.0	438.0	438.0	0	0	1	-29.999999999999996	29.999999999999996								
	19	25	0.03025	0.09752	0.01002	86.0	86.0	86.0	0	0	1	-29.999999999999996	29.999999999999996								
	19	28	0.00983	0.01736	0.0016	137.0	137.0	137.0	0	0	1	-29.999999999999996	29.999999999999996								
	19	63	0.03669	0.11818	0.01217	123.0	123.0	123.0	0	0	1	-29.999999999999996	29.999999999999996								
	20	42	0.00711	0.02314	0.00234	124.0	124.0	124.0	0	0	1	-29.999999999999996	29.999999999999996								
	20	48	0.00331	0.01074	0.00109	137.0	137.0	137.0	0	0	1	-29.999999999999996	29.999999999999996								
	21	25	0.01116	0.01529	0.00275	113.99999999999999	113.99999999999999	113.99999999999999	0	0	1	-29.999999999999996	29.999999999999996								
	21	40	0.01116	0.01529	0.00275	113.99999999999999	113.99999999999999	113.99999999999999	0	0	1	-29.999999999999996	29.999999999999996								
	22	37	0.0405	0.07107	0.00673	59.54999999999999	71.46	89.33	0	0	1	-29.999999999999996	29.999999999999996								
	22	51	0.04628	0.07107	0.0076	67.92	81.51	101.88	0	0	1	-29.999999999999996	29.999999999999996								
	23	39	0.00124	0.00413	0.00039	128.0	128.0	128.0	0	0	1	-29.999999999999996	29.999999999999996								
	23	43	0.00793	0.02231	0.00215	123.0	123.0	123.0	0	0	1	-29.999999999999996	29.999999999999996								
	23	45	0.00124	0.00413	0.00041	170.12	204.15	255.18	0	0	1	-29.999999999999996	29.999999999999996								
	23	514	0.0001	0.01	0.0	229.85999999999999	275.83	344.79	0	0	1	-29.999999999999996	29.999999999999996								
	25	49	0.00124	0.00413	0.00039	128.0	128.0	128.0	0	0	1	-29.999999999999996	29.999999999999996								
	25	61	0.01977	0.06457	0.00658	123.0	123.0	123.0	0	0	1	-29.999999999999996	29.999999999999996								
	25	62	0.00218	0.00712	0.00073	123.0	123.0	123.0	0	0	1	-29.999999999999996	29.999999999999996								
	26	35	0.0065	0.02121	0.00216	123.0	123.0	123.0	0	0	1	-29.999999999999996	29.999999999999996								
	26	119	0.0001	0.01	0.0	170.58	204.69999999999996	255.87	0	0	1	-29.999999999999996	29.999999999999996								
	27	28	8.0e-5	0.00083	0.0	438.0	438.0	438.0	0	0	1	-29.999999999999996	29.999999999999996								
	27	32	0.00124	0.00413	0.00039	128.0	128.0	128.0	0	0	1	-29.999999999999996	29.999999999999996								
	27	56	0.00099	0.00347	0.00036	137.0	137.0	137.0	0	0	1	-29.999999999999996	29.999999999999996								
	27	61	0.01083	0.03471	0.00358	137.0	137.0	137.0	0	0	1	-29.999999999999996	29.999999999999996								
	28	31	0.00496	0.01273	0.00128	95.0	95.0	95.0	0	0	1	-29.999999999999996	29.999999999999996								
	28	55	0.00124	0.00413	0.00039	128.0	128.0	128.0	0	0	1	-29.999999999999996	29.999999999999996								
	29	30	0.00142	0.00465	0.00047	123.0	123.0	123.0	0	0	1	-29.999999999999996	29.999999999999996								
	29	58	0.00408	0.01332	0.00136	123.0	123.0	123.0	0	0	1	-29.999999999999996	29.999999999999996								
	30	64	0.01705	0.05552	0.00567	137.0	137.0	137.0	0	0	1	-29.999999999999996	29.999999999999996								
	31	46	0.00372	0.00934	0.00094	120.0	120.0	120.0	0	0	1	-29.999999999999996	29.999999999999996								
	32	55	0.00124	0.00413	0.00039	128.0	128.0	128.0	0	0	1	-29.999999999999996	29.999999999999996								
	34	62	0.00133	0.00434	0.00044	123.0	123.0	123.0	0	0	1	-29.999999999999996	29.999999999999996								
	36	42	0.00289	0.00926	0.00094	137.0	137.0	137.0	0	0	1	-29.999999999999996	29.999999999999996								
	36	56	0.00207	0.00694	0.0007	137.0	137.0	137.0	0	0	1	-29.999999999999996	29.999999999999996								
	37	38	0.00413	0.01372	0.00138	62.0	62.0	62.0	0	0	1	-29.999999999999996	29.999999999999996								
	38	60	0.03438	0.06099	0.00569	62.0	62.0	62.0	0	0	1	-29.999999999999996	29.999999999999996								
	39	40	8.0e-5	0.00083	0.0	438.0	438.0	438.0	0	0	1	-29.999999999999996	29.999999999999996								
	39	41	0.00124	0.00413	0.00039	128.0	128.0	128.0	0	0	1	-29.999999999999996	29.999999999999996								
	40	41	0.00124	0.00413	0.00039	128.0	128.0	128.0	0	0	1	-29.999999999999996	29.999999999999996								
	44	60	0.0395	0.1281	0.01314	62.0	62.0	62.0	0	0	1	-29.999999999999996	29.999999999999996								
	44	64	0.00165	0.00496	0.00053	137.0	137.0	137.0	0	0	1	-29.999999999999996	29.999999999999996								
	46	62	0.0235	0.07683	0.00783	123.0	123.0	123.0	0	0	1	-29.999999999999996	29.999999999999996								
	47	48	0.00645	0.02066	0.00213	137.0	137.0	137.0	0	0	1	-29.999999999999996	29.999999999999996								
	47	58	0.04174	0.07322	0.00692	90.0	90.0	90.0	0	0	1	-29.999999999999996	29.999999999999996								
	47	59	0.01132	0.03636	0.00375	137.0	137.0	137.0	0	0	1	-29.999999999999996	29.999999999999996								
	50	52	0.04351	0.09356	0.00962	54.76	71.18	71.18	0	0	1	-29.999999999999996	29.999999999999996								
	51	54	0.01653	0.03306	0.00242	62.580000000000005	75.1	93.87	0	0	1	-29.999999999999996	29.999999999999996								
	52	53	8.0e-5	0.00083	0.0	438.0	438.0	438.0	0	0	1	-29.999999999999996	29.999999999999996								
	52	57	0.02394	0.04718	0.00469	58.82999999999999	76.48	76.48	0	0	1	-29.999999999999996	29.999999999999996								
	54	432	0.0001	0.01	0.0	193.33	231.99	289.99	0	0	1	-29.999999999999996	29.999999999999996								
	59	63	0.01721	0.05623	0.00573	140.0	140.0	140.0	0	0	1	-29.999999999999996	29.999999999999996								
	63	64	8.0e-5	0.00083	0.0	438.0	438.0	438.0	0	0	1	-29.999999999999996	29.999999999999996								
	66	75	0.00186	0.02155	0.05317	461.00000000000006	461.00000000000006	461.00000000000006	0	0	1	-29.999999999999996	29.999999999999996								
	67	68	0.00051	0.0275	0.0	400.0	400.0	400.0	1.07702	0.0	1	-29.999999999999996	29.999999999999996								
	67	82	0.00568	0.04215	0.0716	317.0	317.0	317.0	0	0	1	-29.999999999999996	29.999999999999996								
	68	79	0.00131	0.01547	0.41152	838.0000000000001	838.0000000000001	838.0000000000001	0	0	1	-29.999999999999996	29.999999999999996								
	69	70	1.0e-5	6.0e-5	0.0	1593.0	1593.0	1593.0	0	0	1	-29.999999999999996	29.999999999999996								
	71	69	0.00084	0.06858	0.0	250.0	250.0	250.0	0.9999	0.0	1	-29.999999999999996	29.999999999999996								
	69	130	0.00033	0.00388	0.10475	831.0	831.0	831.0	0	0	1	-29.999999999999996	29.999999999999996								
	70	77	0.0024	0.02795	0.75408	838.0000000000001	838.0000000000001	838.0000000000001	0	0	1	-29.999999999999996	29.999999999999996								
	70	81	0.00133	0.01553	0.41898	831.0	831.0	831.0	0	0	1	-29.999999999999996	29.999999999999996								
	88	71	0.00044	-0.00422	0.0	250.0	250.0	250.0	1.06772	0.0	1	-29.999999999999996	29.999999999999996								
	89	71	0.00496	0.06982	0.0	64.99	84.49	84.49	0.98438	0.0	1	-29.999999999999996	29.999999999999996								
	72	73	2.0e-5	0.00021	0.0	876.0	876.0	876.0	0	0	1	-29.999999999999996	29.999999999999996								
	72	75	0.02738	0.14254	0.20047	222.00000000000003	222.00000000000003	222.00000000000003	0	0	1	-29.999999999999996	29.999999999999996								
	90	72	0.00015	0.06524	0.0	160.0	160.0	160.0	1.07325	0.0	1	-29.999999999999996	29.999999999999996								
	73	82	0.01909	0.11277	0.16673	197.0	197.0	197.0	0	0	1	-29.999999999999996	29.999999999999996								
	91	73	0.00027	0.06715	0.0	160.0	160.0	160.0	1.08282	0.0	1	-29.999999999999996	29.999999999999996								
	74	75	2.0e-5	0.00021	0.0	876.0	876.0	876.0	0	0	1	-29.999999999999996	29.999999999999996								
	74	193	0.0001	0.01	0.0	269.8	323.76	404.7	0	0	1	-29.999999999999996	29.999999999999996								
	76	75	0.00076	0.0789	0.0	243.52999999999997	316.58	316.58	0.9999	0.0	1	-29.999999999999996	29.999999999999996								
	98	76	-0.00017	0.16709	0.0	260.0	312.0	390.0	0.94157	0.0	1	-29.999999999999996	29.999999999999996								
	78	79	1.0e-5	6.0e-5	0.0	1593.0	1593.0	1593.0	0	0	1	-29.999999999999996	29.999999999999996								
	78	80	0.0015	0.01768	0.46944	831.0	831.0	831.0	0	0	1	-29.999999999999996	29.999999999999996								
	117	78	0.00059	0.04206	0.0	330.0	330.0	330.0	1.04877	0.0	1	-29.999999999999996	29.999999999999996								
	80	81	1.0e-5	6.0e-5	0.0	1593.0	1593.0	1593.0	0	0	1	-29.999999999999996	29.999999999999996								
	128	80	0.00137	0.05969	0.0	250.0	250.0	250.0	1.05449	0.0	1	-29.999999999999996	29.999999999999996								
	129	80	0.00137	0.05969	0.0	250.0	250.0	250.0	1.05312	0.0	1	-29.999999999999996	29.999999999999996								
	80	130	0.001	0.01165	0.31426	831.0	831.0	831.0	0	0	1	-29.999999999999996	29.999999999999996								
	83	102	0.021	0.0679	0.00696	101.0	101.0	101.0	0	0	1	-29.999999999999996	29.999999999999996								
	83	128	0.02139	0.06954	0.00729	120.0	120.0	120.0	0	0	1	-29.999999999999996	29.999999999999996								
	84	85	8.0e-5	0.00083	0.0	438.0	438.0	438.0	0	0	1	-29.999999999999996	29.999999999999996								
	84	90	0.03025	0.09752	0.01002	86.0	86.0	86.0	0	0	1	-29.999999999999996	29.999999999999996								
	84	93	0.00983	0.01736	0.0016	137.0	137.0	137.0	0	0	1	-29.999999999999996	29.999999999999996								
	84	128	0.03669	0.11818	0.01217	123.0	123.0	123.0	0	0	1	-29.999999999999996	29.999999999999996								
	85	107	0.00711	0.02314	0.00234	124.0	124.0	124.0	0	0	1	-29.999999999999996	29.999999999999996								
	85	113	0.00331	0.01074	0.00109	137.0	137.0	137.0	0	0	1	-29.999999999999996	29.999999999999996								
	86	90	0.01116	0.01529	0.00275	113.99999999999999	113.99999999999999	113.99999999999999	0	0	1	-29.999999999999996	29.999999999999996								
	86	105	0.01116	0.01529	0.00275	113.99999999999999	113.99999999999999	113.99999999999999	0	0	1	-29.999999999999996	29.999999999999996								
	87	102	0.0405	0.07107	0.00673	88.34	106.01	132.51	0	0	1	-29.999999999999996	29.999999999999996								
	87	116	0.04628	0.07107	0.0076	82.01	98.42	123.02	0	0	1	-29.999999999999996	29.999999999999996								
	88	104	0.00124	0.00413	0.00039	128.0	128.0	128.0	0	0	1	-29.999999999999996	29.999999999999996								
	88	108	0.00793	0.02231	0.00215	176.21	211.46000000000004	264.32	0	0	1	-29.999999999999996	29.999999999999996								
	88	110	0.00124	0.00413	0.00041	137.0	137.0	137.0	0	0	1	-29.999999999999996	29.999999999999996								
	90	114	0.00124	0.00413	0.00039	128.0	128.0	128.0	0	0	1	-29.999999999999996	29.999999999999996								
	90	126	0.01977	0.06457	0.00658	123.0	123.0	123.0	0	0	1	-29.999999999999996	29.999999999999996								
	90	127	0.00218	0.00712	0.00073	123.0	123.0	123.0	0	0	1	-29.999999999999996	29.999999999999996								
	91	100	0.0065	0.02121	0.00216	123.0	123.0	123.0	0	0	1	-29.999999999999996	29.999999999999996								
	91	480	0.0001	0.01	0.0	83.7	98.6	125.55000000000001	0	0	1	-29.999999999999996	29.999999999999996								
	92	93	8.0e-5	0.00083	0.0	438.0	438.0	438.0	0	0	1	-29.999999999999996	29.999999999999996								
	92	97	0.00124	0.00413	0.00039	128.0	128.0	128.0	0	0	1	-29.999999999999996	29.999999999999996								
	92	121	0.00099	0.00347	0.00036	137.0	137.0	137.0	0	0	1	-29.999999999999996	29.999999999999996								
	92	126	0.01083	0.03471	0.00358	137.0	137.0	137.0	0	0	1	-29.999999999999996	29.999999999999996								
	93	96	0.00496	0.01273	0.00128	95.0	95.0	95.0	0	0	1	-29.999999999999996	29.999999999999996								
	93	120	0.00124	0.00413	0.00039	128.0	128.0	128.0	0	0	1	-29.999999999999996	29.999999999999996								
	94	95	0.00142	0.00465	0.00047	123.0	123.0	123.0	0	0	1	-29.999999999999996	29.999999999999996								
	94	123	0.00408	0.01332	0.00136	123.0	123.0	123.0	0	0	1	-29.999999999999996	29.999999999999996								
	95	129	0.01705	0.05552	0.00567	137.0	137.0	137.0	0	0	1	-29.999999999999996	29.999999999999996								
	96	111	0.00372	0.00934	0.00094	120.0	120.0	120.0	0	0	1	-29.999999999999996	29.999999999999996								
	97	120	0.00124	0.00413	0.00039	128.0	128.0	128.0	0	0	1	-29.999999999999996	29.999999999999996								
	99	127	0.00133	0.00434	0.00044	123.0	123.0	123.0	0	0	1	-29.999999999999996	29.999999999999996								
	101	107	0.00289	0.00926	0.00094	137.0	137.0	137.0	0	0	1	-29.999999999999996	29.999999999999996								
	101	121	0.00207	0.00694	0.0007	137.0	137.0	137.0	0	0	1	-29.999999999999996	29.999999999999996								
	102	103	0.00413	0.01372	0.00138	62.0	62.0	62.0	0	0	1	-29.999999999999996	29.999999999999996								
	103	125	0.03438	0.06099	0.00569	62.0	62.0	62.0	0	0	1	-29.999999999999996	29.999999999999996								
	104	105	8.0e-5	0.00083	0.0	438.0	438.0	438.0	0	0	1	-29.999999999999996	29.999999999999996								
	104	106	0.00124	0.00413	0.00039	128.0	128.0	128.0	0	0	1	-29.999999999999996	29.999999999999996								
	105	106	0.00124	0.00413	0.00039	128.0	128.0	128.0	0	0	1	-29.999999999999996	29.999999999999996								
	108	222	0.0001	0.01	0.0	131.42	157.71	197.13	0	0	1	-29.999999999999996	29.999999999999996								
	109	125	0.0395	0.1281	0.01314	62.0	62.0	62.0	0	0	1	-29.999999999999996	29.999999999999996								
	109	129	0.00165	0.00496	0.00053	137.0	137.0	137.0	0	0	1	-29.999999999999996	29.999999999999996								
	111	127	0.0235	0.07683	0.00783	123.0	123.0	123.0	0	0	1	-29.999999999999996	29.999999999999996								
	112	113	0.00645	0.02066	0.00213	137.0	137.0	137.0	0	0	1	-29.999999999999996	29.999999999999996								
	112	123	0.04174	0.07322	0.00692	90.0	90.0	90.0	0	0	1	-29.999999999999996	29.999999999999996								
	112	124	0.01132	0.03636	0.00375	137.0	137.0	137.0	0	0	1	-29.999999999999996	29.999999999999996								
	115	117	0.04351	0.09356	0.00962	54.76	71.18	71.18	0	0	1	-29.999999999999996	29.999999999999996								
	116	119	0.01653	0.03306	0.00242	76.66	91.99	114.99	0	0	1	-29.999999999999996	29.999999999999996								
	117	118	8.0e-5	0.00083	0.0	438.0	438.0	438.0	0	0	1	-29.999999999999996	29.999999999999996								
	117	122	0.02394	0.04718	0.00469	58.82999999999999	76.48	76.48	0	0	1	-29.999999999999996	29.999999999999996								
	124	128	0.01721	0.05623	0.00573	140.0	140.0	140.0	0	0	1	-29.999999999999996	29.999999999999996								
	128	129	8.0e-5	0.00083	0.0	438.0	438.0	438.0	0	0	1	-29.999999999999996	29.999999999999996								
	131	132	2.0e-5	0.00021	0.0	876.0	876.0	876.0	0	0	1	-29.999999999999996	29.999999999999996								
	131	133	0.00033	0.02711	0.0	500.0	500.0	500.0	1.08613	0.0	1	-29.999999999999996	29.999999999999996								
	146	131	0.00163	0.06671	0.0	160.0	160.0	160.0	1.06463	0.0	1	-29.999999999999996	29.999999999999996								
	148	132	0.00163	0.06671	0.0	160.0	160.0	160.0	1.05908	0.0	1	-29.999999999999996	29.999999999999996								
	132	190	0.0001	0.01	0.0	229.39	275.26	344.08	0	0	1	-29.999999999999996	29.999999999999996								
	134	133	0.00032	0.0464	0.0	330.0	330.0	330.0	0.9999	0.0	1	-29.999999999999996	29.999999999999996								
	133	188	0.0001	0.01	0.0	379.94	455.93000000000006	569.91	0	0	1	-29.999999999999996	29.999999999999996								
	147	134	0.00032	-0.00435	0.0	330.0	330.0	330.0	1.06892	0.0	1	-29.999999999999996	29.999999999999996								
	149	134	-0.00022	0.1019	0.0	260.0	312.0	390.0	0.96037	0.0	1	-29.999999999999996	29.999999999999996								
	167	135	-0.00013	-0.00407	0.0	688.8	826.56	1033.2	1.05737	0.0	1	-29.999999999999996	29.999999999999996								
	135	544	0.0001	0.01	0.0	689.73	827.68	1034.6	0	0	1	-29.999999999999996	29.999999999999996								
	136	137	0.02165	0.0724	0.00706	90.0	90.0	90.0	0	0	1	-29.999999999999996	29.999999999999996								
	136	139	0.07884	0.10231	0.01021	49.0	49.0	49.0	0	0	1	-29.999999999999996	29.999999999999996								
	137	138	8.0e-5	0.00083	0.0	438.0	438.0	438.0	0	0	1	-29.999999999999996	29.999999999999996								
	138	565	0.0001	0.01	0.0	83.7	98.6	125.55000000000001	0	0	1	-29.999999999999996	29.999999999999996								
	139	140	0.01322	0.01777	0.00191	62.0	62.0	62.0	0	0	1	-29.999999999999996	29.999999999999996								
	139	166	0.03636	0.12066	0.01181	113.99999999999999	113.99999999999999	113.99999999999999	0	0	1	-29.999999999999996	29.999999999999996								
	139	173	0.02331	0.07893	0.00745	69.0	69.0	69.0	0	0	1	-29.999999999999996	29.999999999999996								
	140	151	0.02231	0.07231	0.01493	75.0	75.0	75.0	0	0	1	-29.999999999999996	29.999999999999996								
	141	148	0.02868	0.09256	0.00951	123.0	123.0	123.0	0	0	1	-29.999999999999996	29.999999999999996								
	141	457	0.0001	0.01	0.0	83.7	98.6	125.55000000000001	0	0	1	-29.999999999999996	29.999999999999996								
	142	172	0.02975	0.09587	0.01007	137.0	137.0	137.0	0	0	1	-29.999999999999996	29.999999999999996								
	142	577	0.0001	0.01	0.0	83.7	98.6	125.55000000000001	0	0	1	-29.999999999999996	29.999999999999996								
	143	167	0.01039	0.05083	0.00494	133.0	133.0	133.0	0	0	1	-29.999999999999996	29.999999999999996								
	143	169	0.02446	0.04347	0.00404	69.0	69.0	69.0	0	0	1	-29.999999999999996	29.999999999999996								
	144	145	0.00149	0.00496	0.00048	137.0	137.0	137.0	0	0	1	-29.999999999999996	29.999999999999996								
	144	177	0.00688	0.02158	0.0024	137.0	137.0	137.0	0	0	1	-29.999999999999996	29.999999999999996								
	145	175	0.00273	0.00826	0.00085	120.0	120.0	120.0	0	0	1	-29.999999999999996	29.999999999999996								
	146	147	8.0e-5	0.00083	0.0	438.0	438.0	438.0	0	0	1	-29.999999999999996	29.999999999999996								
	146	151	0.0314	0.09884	0.01074	123.0	123.0	123.0	0	0	1	-29.999999999999996	29.999999999999996								
	146	154	0.04	0.12959	0.01329	151.36	196.77	196.77	0	0	1	-29.999999999999996	29.999999999999996								
	146	174	0.00736	0.0238	0.00251	113.99999999999999	113.99999999999999	113.99999999999999	0	0	1	-29.999999999999996	29.999999999999996								
	147	148	8.0e-5	0.00083	0.0	438.0	438.0	438.0	0	0	1	-29.999999999999996	29.999999999999996								
	147	155	0.04025	0.13025	0.01336	114.35	148.65	148.65	0	0	1	-29.999999999999996	29.999999999999996								
	147	157	0.02124	0.0686	0.00704	123.0	123.0	123.0	0	0	1	-29.999999999999996	29.999999999999996								
...
];

%%-----  OPF Data  -----%%
%% cost data
%    1    startup    shutdown    n    x1    y1    ...    xn    yn
%    2    startup    shutdown    n    c(n-1)    ...    c0
mpc.gencost = [
	2	0.0	0.0	2	23.535653000000003	0.0
	2	0.0	0.0	2	27.46502	0.0
	2	0.0	0.0	2	34.2278	0.0
	2	0.0	0.0	2	36.624241	0.0
	2	0.0	0.0	2	48.19011600000001	0.0
	2	0.0	0.0	2	37.933947	0.0
	2	0.0	0.0	2	12.156093	0.0
	2	0.0	0.0	2	36.057882	0.0
	2	0.0	0.0	2	46.03746499999999	0.0
	2	0.0	0.0	2	18.648445	0.0
	2	0.0	0.0	2	47.503236	0.0
	2	0.0	0.0	2	103.913889	0.0
	2	0.0	0.0	2	41.991113	0.0
	2	0.0	0.0	2	33.415433	0.0
	2	0.0	0.0	2	26.331314	0.0
	2	0.0	0.0	2	41.212053	0.0
	2	0.0	0.0	2	37.964524	0.0
	2	0.0	0.0	2	28.621957	0.0
	2	0.0	0.0	2	24.735716000000004	0.0
	2	0.0	0.0	2	30.362388000000003	0.0
	2	0.0	0.0	2	38.096425	0.0
	2	0.0	0.0	2	39.564385	0.0
	2	0.0	0.0	2	48.503408	0.0
	2	0.0	0.0	2	36.698208	0.0
	2	0.0	0.0	2	29.832915	0.0
	2	0.0	0.0	2	19.462995	0.0
	2	0.0	0.0	2	24.670298	0.0
	2	0.0	0.0	2	42.514759	0.0
	2	0.0	0.0	2	19.631594	0.0
	2	0.0	0.0	2	44.491363	0.0
	2	0.0	0.0	2	28.563386	0.0
	2	0.0	0.0	2	44.314937	0.0
	2	0.0	0.0	2	30.86321	0.0
	2	0.0	0.0	2	122.11827800000002	0.0
	2	0.0	0.0	2	42.045828	0.0
	2	0.0	0.0	2	19.858774	0.0
	2	0.0	0.0	2	100.342657	0.0
	2	0.0	0.0	2	6.557863	0.0
	2	0.0	0.0	2	32.124894	0.0
	2	0.0	0.0	2	120.383376	0.0
	2	0.0	0.0	2	53.89813600000001	0.0
	2	0.0	0.0	2	30.44223	0.0
	2	0.0	0.0	2	42.752811	0.0
	2	0.0	0.0	2	27.829351	0.0
	2	0.0	0.0	2	25.900149000000003	0.0
	2	0.0	0.0	2	53.631717	0.0
	2	0.0	0.0	2	101.198461	0.0
	2	0.0	0.0	2	34.466152	0.0
	2	0.0	0.0	2	28.732147	0.0
	2	0.0	0.0	2	105.17840900000002	0.0
	2	0.0	0.0	2	122.50313400000002	0.0
	2	0.0	0.0	2	106.414426	0.0
	2	0.0	0.0	2	27.620251	0.0
	2	0.0	0.0	2	18.242351	0.0
	2	0.0	0.0	2	46.958162	0.0
	2	0.0	0.0	2	39.610535	0.0
	2	0.0	0.0	2	44.894446	0.0
	2	0.0	0.0	2	38.935936	0.0
	2	0.0	0.0	2	42.47150800000001	0.0
	2	0.0	0.0	2	46.45811400000001	0.0
	2	0.0	0.0	2	10.435412	0.0
	2	0.0	0.0	2	36.140449	0.0
	2	0.0	0.0	2	31.930638	0.0
	2	0.0	0.0	2	27.846608000000003	0.0
	2	0.0	0.0	2	40.609265	0.0
	2	0.0	0.0	2	28.147333	0.0
	2	0.0	0.0	2	29.951893000000002	0.0
	2	0.0	0.0	2	116.999725	0.0
	2	0.0	0.0	2	27.759506	0.0
	2	0.0	0.0	2	21.238147000000005	0.0
	2	0.0	0.0	2	49.419174000000005	0.0
	2	0.0	0.0	2	125.142988	0.0
	2	0.0	0.0	2	33.921676	0.0
	2	0.0	0.0	2	34.799871	0.0
	2	0.0	0.0	2	28.78128	0.0
	2	0.0	0.0	2	37.79375	0.0
	2	0.0	0.0	2	26.464892	0.0
	2	0.0	0.0	2	40.32149	0.0
	2	0.0	0.0	2	36.682954	0.0
	2	0.0	0.0	2	118.44625100000002	0.0
	2	0.0	0.0	2	19.891648	0.0
	2	0.0	0.0	2	46.939814	0.0
	2	0.0	0.0	2	20.609107000000005	0.0
	2	0.0	0.0	2	51.946595	0.0
	2	0.0	0.0	2	115.13929200000001	0.0
	2	0.0	0.0	2	38.381776	0.0
	2	0.0	0.0	2	30.397232	0.0
	2	0.0	0.0	2	7.1173090000000006	0.0
	2	0.0	0.0	2	41.974613	0.0
	2	0.0	0.0	2	27.925312000000005	0.0
	2	0.0	0.0	2	42.08134700000001	0.0
	2	0.0	0.0	2	40.432203	0.0
	2	0.0	0.0	2	43.532489	0.0
	2	0.0	0.0	2	53.88141000000001	0.0
	2	0.0	0.0	2	103.63306	0.0
	2	0.0	0.0	2	23.935594	0.0
	2	0.0	0.0	2	122.17143700000001	0.0
	2	0.0	0.0	2	63.266585	0.0
	2	0.0	0.0	2	49.915606	0.0
	2	0.0	0.0	2	27.676646	0.0
	2	0.0	0.0	2	20.363747	0.0
	2	0.0	0.0	2	25.563811	0.0
	2	0.0	0.0	2	31.544193	0.0
	2	0.0	0.0	2	105.419125	0.0
	2	0.0	0.0	2	45.262274	0.0
	2	0.0	0.0	2	45.018519	0.0
	2	0.0	0.0	2	123.633802	0.0
	2	0.0	0.0	2	33.598512	0.0
	2	0.0	0.0	2	40.290814	0.0
	2	0.0	0.0	2	45.715203	0.0
	2	0.0	0.0	2	41.700445	0.0
	2	0.0	0.0	2	31.832551	0.0
	2	0.0	0.0	2	34.637815	0.0
	2	0.0	0.0	2	38.244354	0.0
	2	0.0	0.0	2	25.617682000000002	0.0
	2	0.0	0.0	2	26.61175	0.0
	2	0.0	0.0	2	26.589244	0.0
	2	0.0	0.0	2	33.301644	0.0
	2	0.0	0.0	2	40.945757	0.0
	2	0.0	0.0	2	5.116384	0.0
	2	0.0	0.0	2	88.599633	0.0
	2	0.0	0.0	2	33.247253	0.0
	2	0.0	0.0	2	36.486735	0.0
	2	0.0	0.0	2	105.413837	0.0
	2	0.0	0.0	2	48.960239	0.0
	2	0.0	0.0	2	8.304805	0.0
	2	0.0	0.0	2	42.676707	0.0
	2	0.0	0.0	2	20.04202	0.0
	2	0.0	0.0	2	30.385882	0.0
	2	0.0	0.0	2	25.321525	0.0
	2	0.0	0.0	2	27.304206	0.0
	2	0.0	0.0	2	25.284434	0.0
	2	0.0	0.0	2	31.276404	0.0
	2	0.0	0.0	2	37.279277	0.0
	2	0.0	0.0	2	46.78175100000001	0.0
	2	0.0	0.0	2	33.671522	0.0
	2	0.0	0.0	2	19.543519	0.0
	2	0.0	0.0	2	39.300841	0.0
	2	0.0	0.0	2	24.508809000000003	0.0
	2	0.0	0.0	2	102.118437	0.0
	2	0.0	0.0	2	25.764471	0.0
	2	0.0	0.0	2	24.735825000000002	0.0
	2	0.0	0.0	2	29.483804	0.0
	2	0.0	0.0	2	17.836918	0.0
	2	0.0	0.0	2	6.191415000000001	0.0
	2	0.0	0.0	2	20.535865999999995	0.0
	2	0.0	0.0	2	9.033542	0.0
	2	0.0	0.0	2	31.037366	0.0
	2	0.0	0.0	2	26.150452	0.0
	2	0.0	0.0	2	35.87963	0.0
	2	0.0	0.0	2	42.884523	0.0
	2	0.0	0.0	2	25.752611	0.0
	2	0.0	0.0	2	30.26322	0.0
	2	0.0	0.0	2	36.168021	0.0
	2	0.0	0.0	2	34.641486	0.0
	2	0.0	0.0	2	39.185167	0.0
	2	0.0	0.0	2	15.657894	0.0
	2	0.0	0.0	2	25.598432	0.0
	2	0.0	0.0	2	16.446303	0.0
	2	0.0	0.0	2	22.99068	0.0
	2	0.0	0.0	2	18.450031	0.0
	2	0.0	0.0	2	22.144604	0.0
	2	0.0	0.0	2	39.181255	0.0
	2	0.0	0.0	2	36.412829	0.0
	2	0.0	0.0	2	27.748868	0.0
	2	0.0	0.0	2	108.451788	0.0
	2	0.0	0.0	2	17.376283	0.0
];

